# Model1.tcl

wipe all; 
logFile "Model1.log" 
set dataDir Results;			# name of output folder
file mkdir $dataDir;											# create output folder 
set systemTime [clock seconds] 

puts "===============================================================================" 
puts "OpenSees Navigator: Version 2.6.0" 
puts "File sourced: Z:/Non linear analysis/Final project/Model1/Model1.tcl" 
puts "Starting OpenSees analysis: [clock format $systemTime -format "%d-%b-%Y %H:%M:%S"]" 
puts "===============================================================================" 

puts "\n########################" 
puts   "# Analysis-Sequence  1 #"
puts   "########################" 

# Start timing of this analysis sequence 
# -------------------------------------- 
set tStart [clock clicks -milliseconds] 

# Start of model generation 
# ========================= 

# Create ModelBuilder 
# ------------------- 
model  BasicBuilder  -ndm  2  -ndf  3 

# Define geometry 
# --------------- 
# Node   tag       xCrd           yCrd       ndf 
node       1  +0.000000E+00  +0.000000E+00  -ndf 3 
node       2  +0.000000E+00  +0.000000E+00  -ndf 3 
node       3  +0.000000E+00  +3.901000E+03  -ndf 3 
node       4  +0.000000E+00  +3.901000E+03  -ndf 3 

# Define single point constraints 
# ------------------------------- 
# SPC   tag    Dx    Dy    Rz 
fix       1     1     1     1 
fix       4     0     0     1  

#Constraint equal dof  
# -------------------------------------
# SPC   tagr    tagc    doftag1 doftag2  
equalDOF   1       2          1       2
equalDOF   4       3          1       2

# Define material(s) 
# ------------------ 
# Material "ConstitutiveMat":    matTag    eps1  sig1    eps2  sig2    ...  
uniaxialMaterial  MultiLinear       1  +2.000000E-03 +5.800000E+01  +2.000000E-02 +7.250000E+01 

# Material "CyclicMat":    matTag    K0    alpha_Pos    alpha_Neg    My_Pos    My_Neg    Lamda_S    Lamda_C    Lamda_A    Lamda_K    c_S    c_C    c_A    c_K    theta_p_Pos    theta_p_Neg    theta_pc_Pos    theta_pc_Neg    Res_Pos    Res_Neg    theta_u_Pos    theta_u_Neg    D_Pos    D_Neg    <nFactor> 
uniaxialMaterial  Bilin       2  +4.062512E+08  +3.440000E-02  +3.440000E-02  +2.760668E+06  -2.760668E+06  +5.119000E-01  +5.119000E-01  +5.119000E-01  +5.119000E-01  +1.000000E+00  +1.000000E+00  +1.000000E+00  +1.000000E+00  +3.355000E-02  +3.355000E-02  +1.328100E-01  +1.328100E-01  +4.200000E-01  +4.200000E-01  +1.500000E-01  +1.500000E-01  +5.688000E-01  +5.688000E-01  +0.000000E+00 

# Material "ElasticDefault":    matTag    E    <eta>    <Eneg>  
uniaxialMaterial  Elastic       3  +1.904810E+02  +0.000000E+00 

# Define section(s) 
# ----------------- 
# Section "ElasticDefault":    secTag    E    A    Iz    <G>    <alpha> 
section  Elastic       1  +2.900000E+01  +1.800000E+02  +4.860000E+03  +1.115400E+04  +8.333333E-01 

# Define geometric transformation(s) 
# ---------------------------------- 
# GeoTran    type    tag    vec_xz 
geomTransf  Corotational       1 
# Other type?

# Define element(s) 
# ----------------- 
# Element "ColumnBody":    eleTag    NodeI    NodeJ    A    E    Iz    geoTranTag    <alpha  d>    <-mass massDens>    <-cMass> 
element  elasticBeamColumn       1       2       3  +2.774200E+04  +1.904810E+02  +1.906340E+09     1  +0.000000E+00  +0.000000E+00  -mass +0.000000E+00 

# Element "ZeroLMzPlast":    eleTag    NodeI    NodeJ    -mat matTag1 matTag2 ...    -dir dir1 dir2 ...    <-orient x1 x2 x3 y1 y2 y3>    <-doRayleigh flag> 
element  zeroLength       2       1       2  -mat 3  3  2  -dir 1  2  6 -orient +0.000000E+00 +1.000000E+00 +0.000000E+00  -1.000000E+00 -0.000000E+00 -0.000000E+00 

# Element "ZeroLMzPlast":    eleTag    NodeI    NodeJ    -mat matTag1 matTag2 ...    -dir dir1 dir2 ...    <-orient x1 x2 x3 y1 y2 y3>    <-doRayleigh flag> 
element  zeroLength       3       3       4  -mat 3  3  2  -dir 1  2  6 -orient +0.000000E+00 +1.000000E+00 +0.000000E+00  -1.000000E+00 -0.000000E+00 -0.000000E+00 

# Define time series 
# ------------------ 
# TimeSeries "LinearDefault":    tsTag    cFactor 
timeSeries  Linear       1  -factor +1.000000E+00 

# Start of analysis generation 
# ============================ 

# Get initial stiffness 
# --------------------- 
initialize 

puts "o Analysis: AxialLoading" 
# ~~~~~~~~~~~~~~~~~~~~~~~~~~~~~ 

# Define load pattern 
# ------------------- 
set Py 11411.0; # Axial resistance of column in (kN)

pattern Plain 1 Linear {
	load 4 0.0 [expr -0.2*$Py] 0.0  

}

# Define recorder(s) 
# ------------------ 
# BeamColumn Recorder "ColumnRecorder":    fileName    <eleTag>    arguments 
recorder  Element  -file AxialLoading_BeamColumn_ColumnRecorder_GlbForc.txt  -time  -ele 1  force 
recorder  Element  -file AxialLoading_BeamColumn_ColumnRecorder_LocForc.txt  -time  -ele 1  localForce 

# Node Recorder "DefoShape":    fileName    <nodeTag>    dof    respType 
recorder  Node  -file AxialLoading_Node_DefoShape_Dsp.txt  -time  -nodeRange 1  4  -dof 1  2  3  disp 

# Node Recorder "EigenVectors":    fileName    <nodeTag>    dof    respType 

# Node Recorder "Reactions":    fileName    <nodeTag>    dof    respType 
recorder  Node  -file AxialLoading_Node_Reactions_RFrc.txt  -time  -nodeRange 1  4  -dof 1  2  3  reaction 

# Node Recorder "TopNodesRecorder":    fileName    <nodeTag>    dof    respType 
recorder  Node  -file AxialLoading_Node_TopNodesRecorder_Dsp.txt  -time  -node 3  4  -dof 1  2  3  disp 

# ZeroLength Recorder "ZeroLRecorder":    fileName    <eleTag>    arguments 
recorder  Element  -file AxialLoading_ZeroLength_ZeroLRecorder_GlbForc.txt  -time  -ele 2  3  force 
recorder  Element  -file AxialLoading_ZeroLength_ZeroLRecorder_BasForc.txt  -time  -ele 2  3  basicForce 
recorder  Element  -file AxialLoading_ZeroLength_ZeroLRecorder_BasDefo.txt  -time  -ele 2  3  deformation 
recorder  Element  -file AxialLoading_ZeroLength_ZeroLRecorder_MatSig_1.txt  -time  -ele 2  3 material 1 stress 
recorder  Element  -file AxialLoading_ZeroLength_ZeroLRecorder_MatSig_2.txt  -time  -ele 2  3 material 2 stress 
recorder  Element  -file AxialLoading_ZeroLength_ZeroLRecorder_MatSig_3.txt  -time  -ele 2  3 material 3 stress 
recorder  Element  -file AxialLoading_ZeroLength_ZeroLRecorder_MatEps_1.txt  -time  -ele 2  3 material 1 strain 
recorder  Element  -file AxialLoading_ZeroLength_ZeroLRecorder_MatEps_2.txt  -time  -ele 2  3 material 2 strain 
recorder  Element  -file AxialLoading_ZeroLength_ZeroLRecorder_MatEps_3.txt  -time  -ele 2  3 material 3 strain 

# Define analysis options 
# ----------------------- 
# Gravity-analysis parameters -- load-controlled static analysis
set Tol 1.0e-10;			# convergence tolerance for test
constraints Plain;     		# how it handles boundary conditions
numberer Plain;				# renumber dof's to minimize band-width (optimization), if you want to
system  BandGeneral;		# how to store and solve the system of equations in the analysis
test RelativeNormUnbalance $Tol 20 2; 		# determine if convergence has been achieved at the end of an iteration step
algorithm Newton;			# use Newton's solution algorithm: updates tangent stiffness at every iteration
set NstepGravity 10;  		# apply gravity in 10 steps
set DGravity [expr 1./$NstepGravity]; 	# first load increment;
integrator LoadControl $DGravity;	# determine the next time step for an analysis
analysis Static;			# define type of analysis static or transient

# Record initial state of model 
# ----------------------------- 
record

# Analyze model 
# ------------- 
analyze $NstepGravity;

# Maintain constant gravity loads and reset time to zero
# ------------- 
loadConst -time 0.0

puts "Model Built"

# ######################### STATIC PUSHOVER ANALYSIS #######################

puts "Running Analysis..."

# Assign lateral loads and create load pattern
# ------------- 
  set CtrlNode 4;
  set CtrlDOF 1;
  pattern Plain 200 Linear {			
	 load $CtrlNode 1.0 0.0 0.0;
  }

# Define recorder(s) 
# ------------------ 
# BeamColumn Recorder "ColumnRecorder":    fileName    <eleTag>    arguments 
recorder  Element  -file AxialLoading_BeamColumn_ColumnRecorder_GlbForc.out  -time  -ele 1  force 
recorder  Element  -file AxialLoading_BeamColumn_ColumnRecorder_LocForc.out  -time  -ele 1  localForce 

# Node Recorder "DefoShape":    fileName    <nodeTag>    dof    respType 
recorder  Node  -file AxialLoading_Node_DefoShape_Dsp.out  -time  -nodeRange 1  4  -dof 1  2  3  disp 

# Node Recorder "EigenVectors":    fileName    <nodeTag>    dof    respType 

# Node Recorder "Reactions":    fileName    <nodeTag>    dof    respType 
recorder  Node  -file AxialLoading_Node_Reactions_RFrc.out  -time  -nodeRange 1  4  -dof 1  2  3  reaction 

# Node Recorder "TopNodesRecorder":    fileName    <nodeTag>    dof    respType 
recorder  Node  -file AxialLoading_Node_TopNodesRecorder_Dsp.out  -time  -node 2  4  -dof 1  2  3  disp 

# ZeroLength Recorder "ZeroLRecorder":    fileName    <eleTag>    arguments 
recorder  Element  -file Pushover_ZeroLength_ZeroLRecorder_GlbForc.out  -time  -ele 2  3  force 
recorder  Element  -file Pushover_ZeroLength_ZeroLRecorder_BasForc.out  -time  -ele 2  3  basicForce 
recorder  Element  -file Pushover_ZeroLength_ZeroLRecorder_BasDefo.out  -time  -ele 2  3  deformation 
recorder  Element  -file Pushover_ZeroLength_ZeroLRecorder_MatSig_1.out  -time  -ele 2  3 material 1 stress 
recorder  Element  -file Pushover_ZeroLength_ZeroLRecorder_MatSig_2.out  -time  -ele 2  3 material 2 stress 
recorder  Element  -file Pushover_ZeroLength_ZeroLRecorder_MatSig_3.out  -time  -ele 2  3 material 3 stress 
recorder  Element  -file Pushover_ZeroLength_ZeroLRecorder_MatEps_1.out  -time  -ele 2  3 material 1 strain 
recorder  Element  -file Pushover_ZeroLength_ZeroLRecorder_MatEps_2.out  -time  -ele 2  3 material 2 strain 
recorder  Element  -file Pushover_ZeroLength_ZeroLRecorder_MatEps_3.out  -time  -ele 2  3 material 3 strain 
  
# Analysis commands
# ------------- 
	constraints Plain;					# how it handles boundary conditions
	numberer Plain;						# renumber dof's to minimize band-width (optimization)
	system  UmfPack -lvalueFact   10;   # how to store and solve the system of equations in the analysis (large model: try UmfPack)
	set currentTolerance 1.0e-12
	set nIter0 20000;
	# test EnergyIncr $currentTolerance $nIter0;		# type of convergence criteria with tolerance, max iterations
	#test RelativeNormUnbalance $currentTolerance $nIter0;
	test NormDispIncr $currentTolerance $nIter0;	
	#algorithm KrylovNewton;					# use Newton's solution algorithm: updates tangent stiffness at every iteration
	#algorithm ModifiedNewton -initial
	#algorithm NewtonLineSearch;
	#algorithm Newton;	
	#algorithm BFGS;
	#algorithm SecantNewton
	#algorithm NewtonLineSearch -type Bisection 0.75;
	set algo "ModifiedNewton";
	set algoOptions "-initial";
	# set algo "KrylovNewton";
	# set algoOptions "";
	algorithm $algo $algoOptions;

# Cyclic run -- we will run a loop over each displacement increment (top in-plane displacement in (mm))
# ------------- 
set disp [list 0	0	0.002306582	0.185253331	0.68884698	1.199789229	1.700077672	2.197553171	2.702790778	3.195027821	3.701253328	4.202547483	4.702671431	5.204450339	5.706467666	6.200432777	6.705639884	7.202733308	7.705636788	8.204491809	8.708126843	9.20649711	9.709964506	10.211532	10.71007643	11.20895706	11.71093434	12.20743731	12.71003205	13.21177743	13.70919961	14.20686115	14.6470163	14.14282806	13

  # Count the number of elements in the list "disp" -- this gives us the length of the loop we will do
  set LoopLength [llength $disp]
  puts "Loop length: "
  puts $LoopLength
  set h 1 


# Run the static cyclic analysis
# ------------- 
  set NSteps 1; # Number of increments during analysis
  set dU1 0;
  set ok 0;
  
  puts "Analysis..."

  while {$ok == 0 && $h < $LoopLength} {
	# List starts with 0 index and goes to index (h-1)
	set index [expr $h]
	# We need the relative deformation of the loading protocol
	# Subtract dUi+1 - dUi
	set D1 [lindex $disp $index]; # Retrieve element $index from list $disp
	set D2 [lindex $disp $index-1];
	set dU1 [expr ($D1-$D2)];
	
	# Create Nsteps from Amplitude to Amplitude
	set dU [expr ($dU1)/$NSteps]
	
	# Displacement Control Integrator -- displacement increment dU is applied at the top node (node 4) in dof 1
	integrator DisplacementControl $CtrlNode $CtrlDOF $dU
	analysis Static
	puts $ok
    puts "increment = [expr {$h}] / [expr {$LoopLength}]";
	 
	# Perform analysis with $NSteps -- analyze returns 0 if succesfull and < 0 if not
	set ok [ analyze $NSteps]
	
	# If unsuccesfull, try other convergence criteria and/or algorithms
	if {$ok != 0} {
	puts "loop 1 to update tol"
    eval "test NormDispIncr [expr $currentTolerance*1000] [expr 2*$nIter0] 0"
	algorithm ModifiedNewton -initial;
	set ok [analyze [expr $NSteps/1]]
 }
	
	if {$ok != 0} {
	puts "loop 2 to update tol"
    eval "test EnergyIncr [expr $currentTolerance*1000] [expr 4*$nIter0] 0"
	algorithm ModifiedNewton -initial;
	set ok [analyze [expr $NSteps/1]]
 }
	
	if {$ok != 0} {
	puts "loop 3 to update tol"
    eval "test EnergyIncr [expr $currentTolerance*1000] $nIter0 0"
	algorithm NewtonLineSearch -type Bisection 0.75;
	set ok [analyze [expr $NSteps/1]]
 }
 
 	if {$ok != 0} {
	puts "loop 4  to update tol"
    eval "test NormDispIncr [expr $currentTolerance*10000] $nIter0 0"
	algorithm NewtonLineSearch -type Bisection 0.75;
	set ok [analyze [expr $NSteps/1]]
 }
 
	if {$ok != 0} {
	puts "loop 5  to update tol"
    eval "test NormDispIncr [expr $currentTolerance*10000000000] $nIter0 0"
	algorithm NewtonLineSearch;
	set ok [analyze [expr $NSteps/1]]
 }
 
  test EnergyIncr $currentTolerance $nIter0;
  algorithm Newton;
  
  # Increment +1
  set h [expr $h + 1 ]
} 

# Stop timing of this analysis sequence 
# ------------------------------------- 
set tStop [clock clicks -milliseconds] 
puts "o Time taken: [expr ($tStop-$tStart)/1000.0] sec" 

# Clean up 
# -------- 
wipe 
set systemTime [clock seconds] 
puts "\n===============================================================================" 
puts "Finished OpenSees analysis: [clock format $systemTime -format "%d-%b-%Y %H:%M:%S"]" 
puts "===============================================================================" 
exit 


